LTspice 24.0.12 for Windows
Circuit: * C:\Users\q\Documents\GitHub\tdse-tf_1-2\Kicad\placa dimmer\simus\Draft1.asc
Start Time: Thu Jan 15 20:20:51 2026
solver = Normal
Maximum thread count: 16
tnom = 27
temp = 27
method = modified trap
WARNING: Node NC_01 is floating.

WARNING: Less than two connections to node nc_01.  This node is used by g:u2:1.
U1:v7: Missing value, assumed 0V @ DC
Direct Newton iteration failed to find .op point.  (Use ".option noopiter" to skip.)
Starting Gmin stepping
Gmin = 10
Gmin = 1.07374
vernier = 0.5
vernier = 0.25
vernier = 0.125
Gmin = 1.08408
vernier = 0.0625
vernier = 0.03125
vernier = 0.015625
Gmin = 1.05881
vernier = 0.0078125
Gmin = 1.03432
vernier = 0.0104167
vernier = 0.00520833
vernier = 0.00694444
vernier = 0.00347222
Gmin = 1.02561
vernier = 0.00462963
vernier = 0.00231481
Gmin = 1.0194
vernier = 0.00308642
vernier = 0.00154321
vernier = 0.00205761
Gmin = 1.01574
vernier = 0.00102881
vernier = 0.00137174
Gmin = 1.01322
vernier = 0.00068587
vernier = 0.000914493
Gmin = 1.01142
vernier = 0.00121932
vernier = 0.000609662
Gmin = 1.00981
vernier = 0.000812882
vernier = 0.000406441
vernier = 0.000541921
Gmin = 1.00885
vernier = 0.000722562
vernier = 0.000541921
Gmin = 1.00776
vernier = 0.000406441
vernier = 0.000541921
vernier = 0.000406441
Gmin = 1.00718
vernier = 0.000541921
vernier = 0.000406441
Gmin = 0
Gmin stepping failed

Starting source stepping with srcstepmethod=0
Source Step = 3.0303%
Source Step = 33.3333%
Source Step = 43.4659%
Source Step = 43.5162%
Source Step = 43.5458%
Source Step = 43.5754%
Source Step = 43.605%
Source Step = 43.6346%
Source Step = 43.6642%
vernier = 0.00146484
Source Step = 43.7056%
Source Step = 43.75%
Source Step = 43.7944%
Source Step = 43.8388%
Source Step = 43.8832%
vernier = 0.00219727
Source Step = 43.9431%
Source Step = 44.0097%
Source Step = 44.0763%
Source Step = 44.1428%
Source Step = 44.2094%
vernier = 0.0032959
Source Step = 44.296%
Source Step = 44.3959%
Source Step = 44.4957%
Source Step = 44.5956%
Source Step = 44.6955%
vernier = 0.00494385
Source Step = 44.8203%
Source Step = 44.9701%
Source Step = 45.12%
Source Step = 45.2698%
Source Step = 45.4196%
vernier = 0.00741577
Source Step = 45.5994%
Source Step = 45.8241%
Source Step = 46.0488%
Source Step = 46.2735%
Source Step = 46.4982%
vernier = 0.0111237
Source Step = 46.7567%
Source Step = 47.0938%
Source Step = 47.4308%
Source Step = 47.7679%
Source Step = 48.105%
vernier = 0.0166855
Source Step = 48.4758%
Source Step = 48.9814%
Source Step = 49.487%
Source Step = 49.9926%
Source Step = 50.4983%
vernier = 0.0250282
Source Step = 51.0292%
Source Step = 51.7876%
Source Step = 52.546%
Source Step = 53.3045%
Source Step = 54.0629%
Source Step = 54.8213%
vernier = 0.0375423
Source Step = 55.959%
Source Step = 57.0966%
Source Step = 58.2343%
Source Step = 59.3719%
Source Step = 60.5096%
vernier = 0.0563135
Source Step = 62.1591%
Source Step = 63.8656%
Source Step = 65.5721%
Source Step = 67.2786%
Source Step = 68.985%
vernier = 0.0844703
Source Step = 71.3741%
Source Step = 73.9338%
Source Step = 76.4935%
Source Step = 79.0532%
Source Step = 81.6129%
vernier = 0.126705
Source Step = 85.0685%
Source Step = 88.9081%
Source Step = 91.2178%
Source Step = 91.2778%
Source Step = 91.3378%
Source Step = 91.3978%
Source Step = 91.4578%
Source Step = 91.5178%
Source Step = 91.5778%
Source Step = 91.6378%
Source Step = 91.6977%
Source Step = 91.7577%
Source Step = 91.8177%
Source Step = 91.8777%
Source Step = 91.9377%
Source Step = 91.9977%
Source Step = 92.0577%
Source Step = 92.1177%
Source Step = 92.1777%
Source Step = 92.2377%
Source Step = 92.2977%
Source Step = 92.3577%
Source Step = 92.4177%
Source Step = 92.4777%
Source Step = 92.5376%
Source Step = 92.5976%
Source Step = 92.6576%
Source Step = 92.7176%
Source Step = 92.7776%
Source Step = 92.8376%
Source Step = 92.8976%
Source Step = 92.9576%
Source Step = 93.0176%
Source Step = 93.0776%
Source Step = 93.1376%
Source Step = 93.1976%
Source Step = 93.2576%
Source Step = 93.3176%
Source Step = 93.3776%
Source Step = 93.4375%
Source Step = 93.4975%
Source Step = 93.5575%
Source Step = 93.6175%
Source Step = 93.6775%
Source Step = 93.7375%
Source Step = 93.7975%
Source Step = 93.8575%
Source Step = 93.9175%
Source Step = 93.9775%
Source Step = 94.0375%
Source Step = 94.0975%
Source Step = 94.1575%
Source Step = 94.2175%
Source Step = 94.2774%
Source Step = 94.3374%
Source Step = 94.3974%
Source Step = 94.4574%
Source Step = 94.5174%
Source Step = 94.5774%
Source Step = 94.6374%
Source Step = 94.6974%
Source Step = 94.7574%
Source Step = 94.8174%
Source Step = 94.8774%
Source Step = 94.9374%
Source Step = 94.9974%
Source Step = 95.0574%
Source Step = 95.1174%
Source Step = 95.1773%
Source Step = 95.2373%
Source Step = 95.2973%
Source Step = 95.3573%
Source Step = 95.4173%
Source Step = 95.4773%
Source Step = 95.5373%
Source Step = 95.5973%
Source Step = 95.6573%
Source Step = 95.7173%
Source Step = 95.7773%
Source Step = 95.8373%
Source Step = 95.8973%
Source Step = 95.9573%
Source Step = 96.0172%
Source Step = 96.0772%
Source Step = 96.1372%
Source Step = 96.1972%
Source Step = 96.2572%
Source Step = 96.3172%
Source Step = 96.3772%
Source Step = 96.4372%
Source Step = 96.4972%
Source Step = 96.5572%
Source Step = 96.6172%
Source Step = 96.6772%
Source Step = 96.7372%
Source Step = 96.7972%
Source Step = 96.8572%
Source Step = 96.9171%
Source Step = 96.9771%
Source Step = 97.0371%
Source Step = 97.0971%
Source Step = 97.1571%
Source Step = 97.2171%
Source Step = 97.2771%
Source Step = 97.3371%
Source Step = 97.3971%
Source Step = 97.4571%
Source Step = 97.5171%
Source Step = 97.5771%
Source Step = 97.6371%
Source Step = 97.6971%
Source Step = 97.757%
Source Step = 97.817%
Source Step = 97.877%
Source Step = 97.937%
Source Step = 97.997%
Source Step = 98.057%
Source Step = 98.117%
Source Step = 98.177%
Source Step = 98.237%
Source Step = 98.297%
Source Step = 98.357%
Source Step = 98.417%
Source Step = 98.477%
Source Step = 98.537%
Source Step = 98.597%
Source Step = 98.6569%
Source Step = 98.7169%
Source Step = 98.7769%
Source Step = 98.8369%
Source Step = 98.8969%
Source Step = 98.9569%
Source Step = 99.0169%
Source Step = 99.0769%
Source Step = 99.1369%
Source Step = 99.1969%
Source Step = 99.2569%
Source Step = 99.3169%
Source Step = 99.3769%
Source Step = 99.4369%
Source Step = 99.4968%
Source Step = 99.5568%
Source Step = 99.6168%
Source Step = 99.6768%
Source Step = 99.7368%
Source Step = 99.7968%
Source Step = 99.8568%
Source Step = 99.9168%
Source Step = 99.9768%
Source Step = 100%
Source Step = 100%
Source Step = 100%
Source Step = 100%
Source Step = 100%
Source Step = 100%
Source Step = 100%
Source Step = 100%
Source Step = 100%
Source Step = 100%
Source Step = 100%
Source Step = 100%
Source Step = 100%
Source Step = 100%
Source Step = 100%
Source Step = 100%
Source Step = 100%
Source Step = 100%
Source Step = 100%
Source Step = 100%
Source Step = 100%
Source Step = 100%
Source Step = 100%
Source Step = 100%
Source Step = 100%
Source Step = 100%
Source Step = 100%
Source Step = 100%
Source Step = 100%
Source Step = 100%
Source Step = 100%
Source Step = 100%
Source Step = 100%
Source Step = 100%
Source Step = 100%
Source Step = 100%
Source Step = 100%
Source Step = 100%
Source Step = 100%
Source Step = 100%
Source Step = 100%
Source Step = 100%
Source Step = 100%
Source Step = 100%
Source Step = 100%
Source Step = 100%
Source Step = 100%
Source Step = 100%
Source Step = 100%
Source Step = 100%
Source Step = 100%
Source Step = 100%
Source Step = 100%
Source Step = 100%
Source Step = 100%
Source Step = 100%
Source Step = 100%
Source Step = 100%
Source Step = 100%
Source Step = 100%
Source Step = 100%
Source Step = 100%
Source Step = 100%
Source Step = 100%
Source Step = 100%
Source Step = 100%
Source Step = 100%
Source Step = 100%
Source Step = 100%
Source Step = 100%
Source Step = 100%
Source Step = 100%
Source Step = 100%
Source Step = 100%
Source Step = 100%
Source Step = 100%
Source Step = 100%
Source Step = 100%
Source Step = 100%
Source Step = 100%
Source Step = 100%
Source Step = 100%
Source Step = 100%
Source Step = 100%
Source Step = 100%
Source Step = 100%
Source Step = 100%
Source Step = 100%
Source Step = 100%
Source Step = 100%
Source Step = 100%
Source Step = 100%
Source Step = 100%
Source Step = 100%
Source Step = 100%
Source Step = 100%
Source Step = 100%
Source Step = 100%
Source Step = 100%
Source Step = 100%
Source Step = 100%
Source Step = 100%
Source Step = 100%
Source Step = 100%
Source Step = 100%
Source Step = 100%
Source Step = 100%
Source Step = 100%
Source Step = 100%
Source Step = 100%
Source Step = 100%
Source Step = 100%
Source Step = 100%
Source Step = 100%
Source Step = 100%
Source Step = 100%
Source Step = 100%
Source Step = 100%
Source Step = 100%
Source Step = 100%
Source Step = 100%
Source Step = 100%
Source Step = 100%
Source Step = 100%
Source Step = 100%
Source Step = 100%
Source Step = 100%
Source Step = 100%
Source Step = 100%
Source Step = 100%
Source Step = 100%
Source Step = 100%
Source Step = 100%
Source Step = 100%
Source Step = 100%
Source Step = 100%
Source Step = 100%
Source Step = 100%
Source Step = 100%
Source Step = 100%
Source Step = 100%
Source Step = 100%
Source Step = 100%
Source Step = 100%
Source Step = 100%
Source Step = 100%
Source Step = 100%
Source Step = 100%
Source Step = 100%
Source Step = 100%
Source Step = 100%
Source Step = 100%
Source Step = 100%
Source Step = 100%
Source Step = 100%
Source Step = 100%
Source Step = 100%
Source Step = 100%
Source Step = 100%
Source Step = 100%
Source Step = 100%
Source Step = 100%
Source Step = 100%
Source Step = 100%
Source Step = 100%
Source Step = 100%
Source Step = 100%
Source Step = 100%
Source Step = 100%
Source Step = 100%
Source Step = 100%
Source Step = 100%
Source Step = 100%
Source Step = 100%
Source Step = 100%
Source Step = 100%
Source Step = 100%
Source Step = 100%
Source Step = 100%
Source Step = 100%
Source Step = 100%
Source Step = 100%
Source Step = 100%
Source Step = 100%
Source Step = 100%
Source Step = 100%
Source Step = 100%
Source Step = 100%
Source Step = 100%
Source Step = 100%
Source Step = 100%
Source Step = 100%
Source Step = 100%
Source Step = 100%
Source Step = 100%
Source Step = 100%
Source Step = 100%
Source Step = 100%
Source Step = 100%
Source Step = 100%
Source Step = 100%
Source Step = 100%
Source Step = 100%
Source Step = 100%
Source Step = 100%
Source Step = 100%
Source Step = 100%
Source Step = 100%
Source Step = 100%
Source Step = 100%
Source Step = 100%
Source Step = 100%
Source Step = 100%
Source Step = 100%
Source Step = 100%
Source Step = 100%
Source Step = 100%
Source Step = 100%
Source Step = 100%
Source Step = 100%
Source Step = 100%
Source Step = 100%
Source Step = 100%
Source Step = 100%
Source Step = 100%
Source Step = 100%
Source Step = 100%
Source Step = 100%
Source Step = 100%
Source Step = 100%
Source Step = 100%
Source Step = 100%
Source Step = 100%
Source Step = 100%
Source Step = 100%
Source Step = 100%
Source Step = 100%
Source Step = 100%
Source Step = 100%
Source Step = 100%
Source Step = 100%
Source Step = 100%
Source Step = 100%
Source Step = 100%
Source Step = 100%
Source Step = 100%
Source Step = 100%
Source Step = 100%
Source Step = 100%
Source Step = 100%
Source Step = 100%
Source Step = 100%
Source Step = 100%
Source Step = 100%
Source Step = 100%
Source Step = 100%
Source Step = 100%
Source Step = 100%
Source Step = 100%
Source Step = 100%
Source Step = 100%
Source Step = 100%
Source Step = 100%
Source Step = 100%
Source Step = 100%
Source Step = 100%
Source Step = 100%
Source Step = 100%
Source Step = 100%
Source Step = 100%
Source Step = 100%
Source Step = 100%
Source Step = 100%
Source Step = 100%
Source Step = 100%
Source Step = 100%
Source Step = 100%
Source Step = 100%
Source Step = 100%
Source Step = 100%
Source Step = 100%
Source Step = 100%
Source Step = 100%
Source Step = 100%
Source Step = 100%
Source Step = 100%
Source Step = 100%
Source Step = 100%
Source Step = 100%
Source Step = 100%
Source Step = 100%
Source Step = 100%
Source Step = 100%
Source Step = 100%
Source Step = 100%
Source Step = 100%
Source Step = 100%
Source Step = 100%
Source Step = 100%
Source Step = 100%
Source Step = 100%
Source Step = 100%
Source Step = 100%
Source Step = 100%
Source Step = 100%
Source Step = 100%
Source Step = 100%
Source Step = 100%
Source Step = 100%
Source Step = 100%
Source Step = 100%
Source Step = 100%
Source Step = 100%
Source Step = 100%
Source Step = 100%
Source Step = 100%
Source Step = 100%
Source Step = 100%
Source Step = 100%
Source Step = 100%
Source Step = 100%
Source Step = 100%
Source Step = 100%
Source Step = 100%
Source Step = 100%
Source Step = 100%
Source Step = 100%
Source Step = 100%
Source Step = 100%
Source Step = 100%
Source Step = 100%
Source Step = 100%
Source Step = 100%
Source Step = 100%
Source Step = 100%
Source Step = 100%
Source Step = 100%
Source Step = 100%
Source Step = 100%
Source Step = 100%
Source Step = 100%
Source Step = 100%
Source Step = 100%
Source Step = 100%
Source Step = 100%
Source Step = 100%
Source Step = 100%
Source Step = 100%
Source Step = 100%
Source Step = 100%
Source Step = 100%
Source Step = 100%
Source Step = 100%
Source Step = 100%
Source Step = 100%
Source Step = 100%
Source Step = 100%
Source Step = 100%
Source Step = 100%
Source Step = 100%
Source Step = 100%
Source Step = 100%
Source Step = 100%
Source Step = 100%
Source Step = 100%
Source Step = 100%
Source Step = 100%
Source Step = 100%
Source Step = 100%
Source Step = 100%
Source Step = 100%
Source Step = 100%
Source Step = 100%
Source Step = 100%
Source Step = 100%
Source Step = 100%
Source Step = 100%
Source Step = 100%
Source Step = 100%
Source Step = 100%
Source Step = 100%
Source Step = 100%
Source Step = 100%
Source Step = 100%
Source Step = 100%
Source Step = 100%
Source Step = 100%
Source Step = 100%
Source Step = 100%
Source Step = 100%
Source Step = 100%
Source Step = 100%
Source Step = 100%
Source Step = 100%
Source Step = 100%
Source Step = 100%
Source Step = 100%
Source Step = 100%
Source Step = 100%
Source Step = 100%
Source Step = 100%
Source Step = 100%
Source Step = 100%
Source Step = 100%
Source Step = 100%
Source Step = 100%
Source Step = 100%
Source Step = 100%
Source Step = 100%
Source Step = 100%
Source Step = 100%
Source Step = 100%
Source Step = 100%
Source Step = 100%
Source Step = 100%
Source Step = 100%
Source Step = 100%
Source Step = 100%
Source Step = 100%
Source Step = 100%
Source Step = 100%
Source Step = 100%
Source Step = 100%
Source Step = 100%
Source Step = 100%
Source Step = 100%
Source Step = 100%
Source Step = 100%
Source Step = 100%
Source Step = 100%
Source Step = 100%
Source Step = 100%
Source Step = 100%
Source Step = 100%
Source Step = 100%
Source Step = 100%
Source Step = 100%
Source Step = 100%
Source Step = 100%
Source Step = 100%
Source Step = 100%
Source Step = 100%
Source Step = 100%
Source Step = 100%
Source Step = 100%
Source Step = 100%
Source Step = 100%
Source Step = 100%
Source Step = 100%
Source Step = 100%
Source Step = 100%
Source Step = 100%
Source Step = 100%
Source Step = 100%
Source Step = 100%
Source Step = 100%
Source Step = 100%
Source Step = 100%
Source Step = 100%
Source Step = 100%
Source Step = 100%
Source Step = 100%
Source Step = 100%
Source Step = 100%
Source Step = 100%
Source Step = 100%
Source Step = 100%
Source Step = 100%
Source Step = 100%
Source Step = 100%
Source Step = 100%
Source Step = 100%
Source Step = 100%
Source Step = 100%
Source Step = 100%
Source Step = 100%
Source Step = 100%
Source Step = 100%
Source Step = 100%
Source Step = 100%
Source Step = 100%
Source Step = 100%
Source Step = 100%
Source Step = 100%
Source Step = 100%
Source Step = 100%
Source Step = 100%
Source Step = 100%
Source Step = 100%
Source Step = 100%
Source Step = 100%
Source Step = 100%
Source Step = 100%
Source Step = 100%
Source Step = 100%
Source Step = 100%
Source Step = 100%
Source Step = 100%
Source Step = 100%
Source Step = 100%
Source Step = 100%
Source Step = 100%
Source Step = 100%
Source Step = 100%
Source Step = 100%
Source Step = 100%
Source Step = 100%
Source Step = 100%
Source Step = 100%
Source Step = 100%
Source Step = 100%
Source Step = 100%
Source Step = 100%
Source Step = 100%
Source Step = 100%
Source Step = 100%
Source Step = 100%
Source Step = 100%
Source Step = 100%
Source Step = 100%
Source Step = 100%
Source Step = 100%
Source Step = 100%
Source Step = 100%
Source Step = 100%
Source Step = 100%
Source Step = 100%
Source Step = 100%
Source Step = 100%
Source Step = 100%
Source Step = 100%
Source Step = 100%
Source Step = 100%
Source Step = 100%
Source Step = 100%
Source Step = 100%
Source Step = 100%
Source Step = 100%
Source Step = 100%
Source Step = 100%
Source Step = 100%
Source Step = 100%
Source Step = 100%
Source Step = 100%
Source Step = 100%
Source Step = 100%
Source Step = 100%
Source Step = 100%
Source Step = 100%
Source Step = 100%
Source Step = 100%
Source Step = 100%
Source Step = 100%
Source Step = 100%
Source Step = 100%
Source Step = 100%
Source Step = 100%
Source Step = 100%
Source Step = 100%
Source Step = 100%
Source Step = 100%
Source Step = 100%
Source Step = 100%
Source Step = 100%
Source Step = 100%
Source Step = 100%
Source Step = 100%
Source Step = 100%
Source Step = 100%
Source Step = 100%
Source Step = 100%
Source Step = 100%
Source Step = 100%
Source Step = 100%
Source Step = 100%
Source Step = 100%
Source Step = 100%
Source Step = 100%
Source Step = 100%
Source Step = 100%
Source Step = 100%
Source Step = 100%
Source Step = 100%
Source Step = 100%
Source Step = 100%
Source Step = 100%
Source Step = 100%
Source Step = 100%
Source Step = 100%
Source Step = 100%
Source Step = 100%
Source Step = 100%
Source Step = 100%
Source Step = 100%
Source Step = 100%
Source Step = 100%
Source Step = 100%
Source Step = 100%
Source Step = 100%
Source Step = 100%
Source Step = 100%
Source Step = 100%
Source Step = 100%
Source Step = 100%
Source Step = 100%
Source Step = 100%
Source Step = 100%
Source Step = 100%
Source Step = 100%
Source Step = 100%
Source Step = 100%
Source Step = 100%
Source Step = 100%
Source Step = 100%
Source Step = 100%
Source Step = 100%
Source Step = 100%
Source Step = 100%
Source Step = 100%
Source Step = 100%
Source Step = 100%
Source Step = 100%
Source Step = 100%
Source Step = 100%
Source Step = 100%
Source Step = 100%
Source Step = 100%
Source Step = 100%
Source Step = 100%
Source Step = 100%
Source Step = 100%
Source Step = 100%
Source Step = 100%
Source Step = 100%
Source Step = 100%
Source Step = 100%
Source Step = 100%
Source Step = 100%
Source Step = 100%
Source Step = 100%
Source Step = 100%
Source Step = 100%
Source Step = 100%
Source Step = 100%
Source Step = 100%
Source Step = 100%
Source Step = 100%
Source Step = 100%
Source Step = 100%
Trouble finding operating point....skipping operating point for Transient analysis.
